egret/models/tests/pglib_opf_case3_lmbd_lccm_0970.json
{"elements": {"bus": {"1": {"matpower_bustype": "ref", "area": 1.0, "vm": 1.09885261675, "va": 0.0, "base_kv": 240.0, "zone": 1.0, "v_min": 0.9, "v_max": 1.1, "lmp": 33.2652112337, "qlmp": -0.000620401205728, "pl": 106.70000000000002, "ql": 38.8}, "2": {"matpower_bustype": "PV", "area": 1.0, "vm": 0.913620334635, "va": 0.209663705772, "base_kv": 240.0, "zone": 1.0, "v_min": 0.9, "v_max": 1.1, "lmp": 31.7875208406, "qlmp": -0.000999999984228, "pl": 106.70000000000002, "ql": 38.8}, "3": {"matpower_bustype": "PV", "area": 1.0, "vm": 0.900000000448, "va": -0.25611865844, "base_kv": 240.0, "zone": 1.0, "v_min": 0.9, "v_max": 1.1, "lmp": 36.3441310376, "qlmp": -0.000488281191764, "pl": 92.14999999999999, "ql": 48.5}}, "load": {"load_1": {"in_service": true, "p_load": 106.70000000000002, "q_load": 38.8, "bus": "1"}, "load_2": {"in_service": true, "p_load": 106.70000000000002, "q_load": 38.8, "bus": "2"}, "load_3": {"in_service": true, "p_load": 92.14999999999999, "q_load": 48.5, "bus": "3"}}, "generator": {"1": {"bus": "1", "pg": 128.47823288, "qg": 54.6972675861, "vg": 1.0, "mbase": 100.0, "in_service": true, "p_min": 0.0, "p_max": 2000.0, "q_min": -1000.0, "q_max": 1000.0, "generator_type": "thermal", "p_cost": {"data_type": "cost_curve", "cost_curve_type": "polynomial", "values": {"0": 0.0, "1": 5.0, "2": 0.11}}, "startup_cost": 0.0, "shutdown_cost": 0.0}, "2": {"bus": "2", "pg": 179.92659318, "qg": -11.468039359199999, "vg": 1.0, "mbase": 100.0, "in_service": true, "p_min": 0.0, "p_max": 2000.0, "q_min": -1000.0, "q_max": 1000.0, "generator_type": "thermal", "p_cost": {"data_type": "cost_curve", "cost_curve_type": "polynomial", "values": {"0": 0.0, "1": 1.2, "2": 0.08500000000000002}}, "startup_cost": 0.0, "shutdown_cost": 0.0}, "3": {"bus": "3", "pg": 0.0, "qg": -4.84263689344, "vg": 1.0, "mbase": 100.0, "in_service": true, "p_min": 0.0, "p_max": 0.0, "q_min": -1000.0, "q_max": 1000.0, "generator_type": "thermal", "p_cost": {"data_type": "cost_curve", "cost_curve_type": "polynomial", "values": {"0": 0.0, "1": 0.0, "2": 0.0}}, "startup_cost": 0.0, "shutdown_cost": 0.0}}, "branch": {"1": {"from_bus": "1", "to_bus": "3", "resistance": 0.065, "reactance": 0.62, "charging_susceptance": 0.45, "branch_type": "line", "rating_long_term": 9000.0, "rating_short_term": 9000.0, "rating_emergency": 9000.0, "in_service": true, "angle_diff_min": -30.0, "angle_diff_max": 30.0, "pf": 43.4017367377, "qf": 22.324568912500002, "pt": -49.14556828305927, "qt": -34.90846563423724, "pfl": 1.7167558713299997, "qfl": -24.8634045801, "pf_dual": -307.891980394, "qf_dual": -0.0132120013964, "Ft": {"1": 1.5082326205710606, "2": 0.0, "3": -1.5082326205710606}, "Lt": {"1": 0.0982993257298569, "2": 0.0, "3": -0.0982993257298569}, "ft_c": 0.047730851981048095, "lt_c": -0.008008732718124821, "Fv": {"1": 1.4627236024892356, "2": 0.0, "3": -1.287942193576735}, "Lv": {"1": 0.27256910005823176, "2": 0.0, "3": -0.8849651315931717}, "fv_c": -0.22492399425954895, "lv_c": 0.24832130418489973}, "2": {"from_bus": "3", "to_bus": "2", "resistance": 0.025, "reactance": 0.75, "charging_susceptance": 0.7, "branch_type": "line", "rating_long_term": 50.0, "rating_short_term": 50.0, "rating_emergency": 50.0, "in_service": true, "angle_diff_min": -30.0, "angle_diff_max": 30.0, "pf": -50.0, "qf": 0.31034927722100003, "pt": 46.52525119736147, "qt": -18.313959121065228, "pfl": 0.7867176039630001, "qfl": -37.7934299363, "pf_dual": -17.4122146568, "qf_dual": 0.0511718792638, "Ft": {"1": 0.0, "2": -1.0100042892415857, "3": 1.0100042892415857}, "Lt": {"1": 0.0, "2": 0.03072250373522806, "3": -0.03072250373522806}, "ft_c": -0.029557814293288964, "lt_c": -0.00644282438465805, "Fv": {"1": 0.0, "2": -0.8927780092061325, "3": 0.900736204134567}, "Lv": {"1": 0.0, "2": -0.3623055207055901, "3": -0.4771176830846433}, "fv_c": 0.008101052173214591, "lv_c": 0.38248130669452163}, "3": {"from_bus": "1", "to_bus": "2", "resistance": 0.042, "reactance": 0.9, "charging_susceptance": 0.3, "branch_type": "line", "rating_long_term": 9000.0, "rating_short_term": 9000.0, "rating_emergency": 9000.0, "in_service": true, "angle_diff_min": -30.0, "angle_diff_max": 30.0, "pf": -22.6575580854, "qf": 18.532688038699998, "pt": 13.481042093852826, "qt": -30.47717586747673, "pfl": 0.351352584977, "qfl": -25.0565741501, "pf_dual": 147.769039313, "qf_dual": 0.03795987785, "Ft": {"1": 1.120473751711482, "2": -1.120473751711482, "3": 0.0}, "Lt": {"1": -0.013320323537484838, "2": 0.013320323537484838, "3": 0.0}, "ft_c": 0.008347098150196491, "lt_c": 0.0007207374548227801, "Fv": {"1": 1.0606209704007588, "2": -0.880725484775037, "3": 0.0}, "Lv": {"1": 0.07190755265565496, "2": -0.6437509789810543, "3": 0.0}, "fv_c": -0.17549053619797453, "lv_c": 0.2585624409372438}}}, "system": {"model_name": "pglib_opf_case3_lmbd", "mpc_version": "'2'", "baseMVA": 100.0, "reference_bus": "1", "reference_bus_angle": 0.0, "total_cost": 5425.792158093056, "ploss": 2.85482606027, "qloss": -87.71340866649999, "mult": 0.97}, "results": {"time": 0.2486729621887207, "#_cons": 58, "#_vars": 36, "#_nz": 138, "termination": "optimal"}}